data_dsmo
_audit_creation_date              2014-06-17
_audit_creation_method            'Materials Studio'
_symmetry_space_group_name_H-M    'PBNM'
_symmetry_Int_Tables_number       62
_symmetry_cell_setting            orthorhombic
loop_
_symmetry_equiv_pos_as_xyz
  x,y,z
  x+1/2,-y+1/2,-z
  -x,-y,z+1/2
  -x+1/2,y+1/2,-z+1/2
  -x,-y,-z
  -x+1/2,y+1/2,z
  x,y,-z+1/2
  x+1/2,-y+1/2,z+1/2
_cell_length_a                    5.4020
_cell_length_b                    5.4149
_cell_length_c                    7.6283
_cell_angle_alpha                 90.0000
_cell_angle_beta                  90.0000
_cell_angle_gamma                 90.0000
loop_
_atom_site_label
_atom_site_type_symbol
_atom_site_fract_x
_atom_site_fract_y
_atom_site_fract_z
_atom_site_U_iso_or_equiv
_atom_site_adp_type
_atom_site_occupancy
O2     O     0.26767   0.27736   0.03511   0.00654  Uani   1.00
Mn1    Mn    0.00000   0.50000   0.00000  -0.00067  Uani   1.00
Dy1    Dy   -0.00269   0.02575   0.25000   0.00829  Uani   0.49
Sr1    Sr   -0.00269   0.02575   0.25000   0.00017  Uani   0.49
O1     O     0.54275  -0.01293   0.25000   0.10068  Uani   1.00
loop_
_atom_site_aniso_label
_atom_site_aniso_U_11
_atom_site_aniso_U_22
_atom_site_aniso_U_33
_atom_site_aniso_U_12
_atom_site_aniso_U_13
_atom_site_aniso_U_23
O2       -0.00438   0.02400   0.00000   0.00000   0.00000   0.00000
Mn1      -0.00200   0.00000   0.00000   0.00000   0.00000   0.00000
Dy1       0.00686   0.01800   0.00000   0.00000  -0.00000   0.00000
Sr1       0.00251  -0.00200   0.00000   0.00000  -0.00000   0.00000
O1        0.21605   0.08600   0.00000   0.00000  -0.00000   0.00000
